testalberta_mdl.m
Bus.con = [ ... 
  1  138  1  0  1  1;
  2  138  1  0  1  1;
  3  240  1  0  1  1;
  4  138  1  0  1  1;
  5  240  1  0  1  1;
  6  138  1  0  1  1;
  7  240  1  0  1  1;
  8  240  1  0  1  1;
  9  240  1  0  1  1;
  10  240  1  0  1  1;
  11  240  1  0  1  1;
  12  240  1  0  1  1;
  13  240  1  0  1  1;
  14  500  1  0  1  1;
  15  138  1  0  1  1;
  16  500  1  0  1  1;
  17  240  1  0  1  1;
  18  240  1  0  1  1;
  19  138  1  0  1  1;
  20  500  1  0  1  1;
  21  240  1  0  1  1;
  22  500  1  0  1  1;
  23  500  1  0  1  1;
  24  500  1  0  1  1;
  25  138  1  0  1  1;
  26  240  1  0  1  1;
  27  500  1  0  1  1;
  28  500  1  0  1  1;
  29  240  1  0  1  1;
  30  240  1  0  1  1;
  31  138  1  0  1  1;
  32  240  1  0  1  1;
  33  240  1  0  1  1;
  34  138  1  0  1  1;
  35  138  1  0  1  1;
  36  240  1  0  1  1;
  37  500  1  0  1  1;
  38  500  1  0  1  1;
  39  138  1  0  1  1;
  40  138  1  0  1  1;
  41  240  1  0  1  1;
  42  500  1  0  1  1;
 ];

Line.con = [ ... 
 39 40 1000 100 60 0 0 0.01 0.0207345 9.04e-05 0 0 0 0 0 1;
 39 41 1000 100 60 0 0 0.00666667 0.013823 0.0001356 0 0 0 0 0 1;
 41 5 1000 100 60 0 0 0.0075 0.0197471 0.0001112 0 0 0 0 0 1;
 41 3 1000 100 60 0 0 0.02 0.041469 4.52e-05 0 0 0 0 0 1;
 2 5 1000 100 60 0 0 0.00666667 0.013823 0.0001356 0 0 0 0 0 1;
 2 4 1000 100 60 0 0 0.02 0.041469 4.52e-05 0 0 0 0 0 1;
 5 3 1000 100 60 0 0 0.02 0.041469 4.52e-05 0 0 0 0 0 1;
 5 4 1000 100 60 0 0 0.02 0.041469 4.52e-05 0 0 0 0 0 1;
 5 7 1000 100 60 0 0 0.00461538 0.012959 0.0001772 0 0 0 0 0 1;
 5 6 1000 100 60 0 0 0.02 0.041469 4.52e-05 0 0 0 0 0 1;
 3 7 1000 100 60 0 0 0.00770149 0.0213082 0.0001037 0 0 0 0 0 1;
 42 3 1000 100 60 0 0 0.012 0.037699 6.6e-05 0 0 0 0 0 1;
 42 22 1000 100 60 0 0 0.005 0.033929 9.42e-05 0 0 0 0 0 1;
 22 3 1000 100 60 0 0 0.012 0.037699 6.6e-05 0 0 0 0 0 1;
 28 21 1000 100 60 0 0 0.00461538 0.012959 0.0001772 0 0 0 0 0 1;
 7 6 1000 100 60 0 0 0.02 0.041469 4.52e-05 0 0 0 0 0 1;
 6 10 1000 100 60 0 0 0.02 0.041469 4.52e-05 0 0 0 0 0 1;
 6 4 1000 100 60 0 0 0.02 0.041469 4.52e-05 0 0 0 0 0 1;
 10 22 1000 100 60 0 0 0.00461538 0.012959 0.0001772 0 0 0 0 0 1;
 10 11 1000 100 60 0 0 0.02 0.041469 4.52e-05 0 0 0 0 0 1;
 9 35 1000 100 60 0 0 0.00666667 0.013823 0.0001356 0 0 0 0 0 1;
 9 1 1000 100 60 0 0 0.02 0.041469 4.52e-05 0 0 0 0 0 1;
 25 32 1000 100 60 0 0 0.02 0.041469 4.52e-05 0 0 0 0 0 1;
 35 1 1000 100 60 0 0 0.02 0.041469 4.52e-05 0 0 0 0 0 1;
 35 17 1000 100 60 0 0 0.02 0.041469 4.52e-05 0 0 0 0 0 1;
 35 12 1000 100 60 0 0 0.02 0.041469 4.52e-05 0 0 0 0 0 1;
 1 13 1000 100 60 0 0 0.02 0.041469 4.52e-05 0 0 0 0 0 1;
 13 18 1000 100 60 0 0 0.00461538 0.012959 0.0001772 0 0 0 0 0 1;
 13 17 1000 100 60 0 0 0.01 0.0207345 9.04e-05 0 0 0 0 0 1;
 42 41 1000 100 60 0 0 0.012 0.037699 6.6e-05 0 0 0 0 0 1;
 18 17 1000 100 60 0 0 0.006 0.0188495 0.000132 0 0 0 0 0 1;
 18 23 1000 100 60 0 0 0.0075 0.0197471 0.0001112 0 0 0 0 0 1;
 17 23 1000 100 60 0 0 0.00291525 0.00830658 0.0002734 0 0 0 0 0 1;
 7 22 1000 100 60 0 0 0.00375 0.00987356 0.0002224 0 0 0 0 0 1;
 8 22 1000 100 60 0 0 0.02 0.041469 4.52e-05 0 0 0 0 0 1;
 22 11 1000 100 60 0 0 0.01 0.0207345 9.04e-05 0 0 0 0 0 1;
 22 38 1000 100 60 0 0 0.00142857 0.0061486 0.0004316 0 0 0 0 0 1;
 42 8 1000 100 60 0 0 0.00461538 0.012959 0.0001772 0 0 0 0 0 1;
 11 16 1000 100 60 0 0 0.012 0.037699 6.6e-05 0 0 0 0 0 1;
 15 19 1000 100 60 0 0 0.02 0.041469 4.52e-05 0 0 0 0 0 1;
 19 16 1000 100 60 0 0 0.01 0.0207345 9.04e-05 0 0 0 0 0 1;
 19 20 1000 100 60 0 0 0.02 0.041469 4.52e-05 0 0 0 0 0 1;
 16 22 1000 100 60 0 0 0.003 0.00942475 0.000264 0 0 0 0 0 1;
 20 16 1000 100 60 0 0 0.003 0.00942475 0.000264 0 0 0 0 0 1;
 20 37 1000 100 60 0 0 0.006 0.0188495 0.000132 0 0 0 0 0 1;
 23 16 1000 100 60 0 0 0.012 0.037699 6.6e-05 0 0 0 0 0 1;
 8 9 1000 100 60 0 0 0.00461538 0.012959 0.0001772 0 0 0 0 0 1;
 12 16 1000 100 60 0 0 0.006 0.0188495 0.000132 0 0 0 0 0 1;
 38 12 1000 100 60 0 0 0.0024 0.00575958 0.000358 0 0 0 0 0 1;
 14 38 1000 100 60 0 0 0.0015 0.00624114 0.0004108 0 0 0 0 0 1;
 14 28 1000 100 60 0 0 0.005 0.033929 9.42e-05 0 0 0 0 0 1;
 23 24 1000 100 60 0 0 0.00375 0.00987356 0.0002224 0 0 0 0 0 1;
 24 28 1000 100 60 0 0 0.006 0.0188495 0.000132 0 0 0 0 0 1;
 23 29 1000 100 60 0 0 0.02 0.041469 4.52e-05 0 0 0 0 0 1;
 8 14 1000 100 60 0 0 0.02 0.041469 4.52e-05 0 0 0 0 0 1;
 26 28 1000 100 60 0 0 0.00461538 0.012959 0.0001772 0 0 0 0 0 1;
 26 30 1000 100 60 0 0 0.00461538 0.012959 0.0001772 0 0 0 0 0 1;
 26 37 1000 100 60 0 0 0.00375 0.00987356 0.0002224 0 0 0 0 0 1;
 26 27 1000 100 60 0 0 0.02 0.041469 4.52e-05 0 0 0 0 0 1;
 28 29 1000 100 60 0 0 0.006 0.0188495 0.000132 0 0 0 0 0 1;
 28 30 1000 100 60 0 0 0.004 0.0125663 0.000198 0 0 0 0 0 1;
 28 31 1000 100 60 0 0 0.01 0.0207345 9.04e-05 0 0 0 0 0 1;
 29 21 1000 100 60 0 0 0.02 0.041469 4.52e-05 0 0 0 0 0 1;
 30 33 1000 100 60 0 0 0.006 0.0188495 0.000132 0 0 0 0 0 1;
 42 9 1000 100 60 0 0 0.012 0.037699 6.6e-05 0 0 0 0 0 1;
 30 32 1000 100 60 0 0 0.00461538 0.012959 0.0001772 0 0 0 0 0 1;
 30 27 1000 100 60 0 0 0.006 0.0188495 0.000132 0 0 0 0 0 1;
 31 21 1000 100 60 0 0 0.02 0.041469 4.52e-05 0 0 0 0 0 1;
 31 33 1000 100 60 0 0 0.02 0.041469 4.52e-05 0 0 0 0 0 1;
 33 32 1000 100 60 0 0 0.00375 0.00987356 0.0002224 0 0 0 0 0 1;
 33 34 1000 100 60 0 0 0.01 0.0207345 9.04e-05 0 0 0 0 0 1;
 20 25 1000 100 60 0 0 0.02 0.041469 4.52e-05 0 0 0 0 0 1;
 41 2 1000 100 60 0 0 0.02 0.041469 4.52e-05 0 0 0 0 0 1;
 25 37 1000 100 60 0 0 0.00666667 0.013823 0.0001356 0 0 0 0 0 1;
 37 27 1000 100 60 0 0 0.00461538 0.012959 0.0001772 0 0 0 0 0 1;
 36 37 1000 100 60 0 0 0.0075 0.0197471 0.0001112 0 0 0 0 0 1;
 27 32 1000 100 60 0 0 0.006 0.0188495 0.000132 0 0 0 0 0 1;
 32 34 1000 100 60 0 0 0.0103614 0.0224624 8.29e-05 0 0 0 0 0 1;
];

SW.con = [ ... 
  37  1000  100  1  0  0.75  -0.5  1.05  0.95  1.54853  1  1  1;
 ];

PV.con = [ ...
  19  1000  100  0.019      1  0.00922   -0.00627   1.05  0.95  1  1;
   7  1000  100  0.154      1  0.07474   -0.05081   1.05  0.95  1  1;
  14  1000  100  0.827      1  0.40135   -0.27278   1.05  0.95  1  1;
  10  1000  100  0.79425    1  0.38542   -0.26193   1.05  0.95  1  1;
   9  1000  100  0.589      1  0.28610   -0.19420   1.05  0.95  1  1;
   1  1000  100  0.152      1  0.07369   -0.05012   1.05  0.95  1  1;
  13  1000  100  0.05553571 1  0.02695   -0.01833   1.05  0.95  1  1;
  21  1000  100  1.323      1  0.64185   -0.43556   1.05  0.95  1  1;
  31  1000  100  0.3500804  1  0.16981   -0.11521   1.05  0.95  1  1;
  39  1000  100  0.17       1  0.08241   -0.05598   1.05  0.95  1  1;
  30  1000  100  0.947      1  0.45915   -0.31159   1.05  0.95  1  1;
  29  1000  100  0.4676429  1  0.22673   -0.15389   1.05  0.95  1  1;
  22  1000  100  2.545107   1  1.23372   -0.83753   1.05  0.95  1  1;
  11  1000  100  0.363      1  0.17600   -0.11946   1.05  0.95  1  1;
  15  1000  100  0.12056981 1  0.05847   -0.03977   1.05  0.95  1  1;
  20  1000  100  0.082      1  0.03978   -0.02705   1.05  0.95  1  1;
  16  1000  100  0.48       1  0.23274   -0.15799   1.05  0.95  1  1;
  28  1000  100  0.049      1  0.02376   -0.01614   1.05  0.95  1  1;
  26  1000  100  0.276      1  0.13391   -0.09085   1.05  0.95  1  1;
  42  1000  100  2.85       1  1.38128   -0.93770   1.05  0.95  1  1;
  24  1000  100  1.008      1  0.48906   -0.33192   1.05  0.95  1  1;
  12  1000  100  0.01       1  0.00484   -0.00329   1.05  0.95  1  1;
  38  1000  100  0.366      1  0.17743   -0.12053   1.05  0.95  1  1;
  23  1000  100  0.9658661  1  0.46845   -0.31806   1.05  0.95  1  1;
  17  1000  100  0.5079286  1  0.24637   -0.16732   1.05  0.95  1  1;
  33  1000  100  0.216      1  0.10474   -0.07115   1.05  0.95  1  1;
  25  1000  100  0.32       1  0.15519   -0.10541   1.05  0.95  1  1;
  36  1000  100  0.03       1  0.01456   -0.00988   1.05  0.95  1  1;
  18  1000  100  0.049      1  0.02376   -0.01614   1.05  0.95  1  1;
  27  1000  100  0.059054   1  0.02864   -0.01944   1.05  0.95  1  1;
   8  1000  100  0.149      1  0.07227   -0.04909   1.05  0.95  1  1;
  32  1000  100  1.038      1  0.50310   -0.34191   1.05  0.95  1  1;
  34  1000  100  0.0864375  1  0.04190   -0.02847   1.05  0.95  1  1;
  41  1000  100  0.072      1  0.03494   -0.02373   1.05  0.95  1  1;
   4  1000  100  0.3        1  0.14569   -0.09900   1.05  0.95  1  1;
   2  1000  100  0.421      1  0.20452   -0.13900   1.05  0.95  1  1;
   5  1000  100  0.1        1  0.04856   -0.03300   1.05  0.95  1  1;
   3  1000  100  0.009      1  0.00437   -0.00297   1.05  0.95  1  1;
];

PQ.con = [ ... 
  39  1000  100  0.03008      0.014568409  1.05  0.95  0  1;
  3   1000  100  0.089144     0.04317441   1.05  0.95  0  1;
  7   1000  100  0.270124     0.130827024  1.05  0.95  0  1;
  31  1000  100  0.097673     0.047305193  1.05  0.95  0  1;
  6   1000  100  0.095184     0.046099715  1.05  0.95  0  1;
  10  1000  100  0.123048     0.059594866  1.05  0.95  0  1;
  30  1000  100  0.018106     0.008769136  1.05  0.95  0  1;
  29  1000  100  0.205393     0.09947637   1.05  0.95  0  1;
  28  1000  100  0.086876     0.042075967  1.05  0.95  0  1;
  26  1000  100  0.084218     0.040788639  1.05  0.95  0  1;
  24  1000  100  0.01651      0.007996158  1.05  0.95  0  1;
  40  1000  100  0.045238     0.021909763  1.05  0.95  0  1;
  12  1000  100  0.132369     0.064109233  1.05  0.95  0  1;
  38  1000  100  1.633823     0.791296594  1.05  0.95  0  1;
  23  1000  100  0.153078     0.074139059  1.05  0.95  0  1;
  22  1000  100  0.166024     0.080409093  1.05  0.95  0  1;
  11  1000  100  0.142199     0.068870119  1.05  0.95  0  1;
  15  1000  100  0.001212     0.000586998  1.05  0.95  0  1;
  19  1000  100  0.091901     0.044509686  1.05  0.95  0  1;
  20  1000  100  0.072765     0.035241698  1.05  0.95  0  1;
  16  1000  100  0.343297     0.166266326  1.05  0.95  0  1;
  17  1000  100  0.006375     0.003087553  1.05  0.95  0  1;
  42  1000  100  0.799309     0.387123017  1.05  0.95  0  1;
  18  1000  100  0.100636     0.048740239  1.05  0.95  0  1;
  13  1000  100  0.136411     0.066066863  1.05  0.95  0  1;
  1   1000  100  0.108683     0.052637579  1.05  0.95  0  1;
  35  1000  100  0.076825     0.037208046  1.05  0.95  0  1;
  14  1000  100  0.522316     0.252969185  1.05  0.95  0  1;
  9   1000  100  0.162735     0.078816158  1.05  0.95  0  1;
  33  1000  100  0.190152     0.092094817  1.05  0.95  0  1;
  25  1000  100  0.204537     0.09906179   1.05  0.95  0  1;
  36  1000  100  0.095567     0.046285211  1.05  0.95  0  1;
  37  1000  100  1.369382     0.663221973  1.05  0.95  0  1;
  41  1000  100  0.091017     0.044081545  1.05  0.95  0  1;
  27  1000  100  0.080953     0.039207327  1.05  0.95  0  1;
  32  1000  100  0.031033     0.015029968  1.05  0.95  0  1;
  34  1000  100  0.031698     0.015352042  1.05  0.95  0  1;
  8   1000  100  0.138506     0.067081517  1.05  0.95  0  1;
  21  1000  100  0.035359     0.017125145  1.05  0.95  0  1;
  4   1000  100  0.063564     0.03078545  1.05  0.95  0  1;
  2   1000  100  0.316091     0.153089858  1.05  0.95  0  1;
  5   1000  100  0.0343       0.016612248  1.05  0.95  0  1;
];

Bus.names = {... 
  'Bus 13'; 'Bus 20'; 'Bus 21'; 'Bus 22'; 'Bus 23'; 
  'Bus 24'; 'Bus 26'; 'Bus 27'; 'Bus 28'; 'Bus 29'; 
  'Bus 30'; 'Bus 31'; 'Bus 32'; 'Bus 33'; 'Bus 34'; 
  'Bus 35'; 'Bus 36'; 'Bus 37'; 'Bus 38'; 'Bus 39'; 
  'Bus 4'; 'Bus 40'; 'Bus 42'; 'Bus 43'; 'Bus 44'; 
  'Bus 45'; 'Bus 46'; 'Bus 47'; 'Bus 48'; 'Bus 49'; 
  'Bus 52'; 'Bus 53'; 'Bus 54'; 'Bus 55'; 'Bus 56'; 
  'Bus 57'; 'Bus 6'; 'Bus 60'; 'Bus17'; 'Bus18'; 
  'Bus19'; 'Bus25'};